Version 4
SHEET 1 1588 680
WIRE 0 -16 0 -112
WIRE 0 -16 -80 -16
WIRE 80 -16 80 -112
WIRE 128 -16 80 -16
WIRE 208 -16 128 -16
WIRE -80 16 -80 -16
WIRE 128 16 128 -16
WIRE 208 32 208 -16
WIRE -80 144 -80 96
WIRE 128 144 128 96
WIRE 128 144 -80 144
WIRE 208 144 208 96
WIRE 208 144 128 144
WIRE -80 208 -80 144
FLAG -80 208 0
SYMBOL res -16 0 R270
WINDOW 0 32 56 VTop 2
WINDOW 3 0 56 VBottom 2
SYMATTR InstName R1
SYMATTR Value 4.7k
SYMBOL res 112 0 R0
SYMATTR InstName R2
SYMATTR Value 1k
SYMBOL voltage -80 0 R0
WINDOW 123 0 0 Left 0
WINDOW 39 0 0 Left 0
SYMATTR InstName Vs
SYMATTR Value 3.3
SYMBOL diode 192 32 R0
SYMATTR InstName D1
SYMATTR Value IRLED
SYMBOL res -16 -96 R270
WINDOW 0 32 56 VTop 2
WINDOW 3 0 56 VBottom 2
SYMATTR InstName R3
SYMATTR Value 510
TEXT -112 232 Left 2 !.tran 0 40u 0 1e-6 startup
TEXT 352 -56 Left 2 !.MODEL IRLED D\n+ IS=10.000E-9\n+ N=1.1248\n+ RS=1.2366\n+ IKF=45.752E-15\n+ CJO=25.000E-12\n+ M=.3333\n+ VJ=.75\n+ ISR=10.010E-21\n+ BV=5.4169\n+ IBV=10\n+ TT=5.0000E-9
